cases/transmission/generated_cases/hourly_case_3.m
%% MATPOWER Case Format : Version 2
function mpc = case2383wp
mpc.version = '2';

%%-----  Power Flow Data  -----%%
%% system MVA base
mpc.baseMVA = 100;
%% bus data
%    bus_i    type    Pd    Qd    Gs    Bs    area    Vm    Va    baseKV    zone    Vmax    Vmin
mpc.bus = [
	1	1	0.0	0.0	0.0	0.0	1	1.0133605318147738	4.06840765332927	220.0	1	1.11	0.95				
	2	1	0.0	0.0	0.0	0.0	1	0.9998269728242786	-0.5358648243888441	220.0	1	1.11	0.95				
	3	1	0.0	0.0	0.0	0.0	1	1.037762043516506	-6.744511114072766	220.0	1	1.11	0.95				
	4	1	0.0	0.0	0.0	0.0	1	1.0066083064676603	0.14771674726750703	220.0	1	1.11	0.95				
	5	1	0.0	0.0	0.0	0.0	1	1.0335619910975014	-1.0954401459327994	220.0	1	1.11	0.95				
	6	1	0.0	0.0	0.0	0.0	1	1.004408277295844	1.066876226948975	400.0	1	1.05	0.95				
	7	1	0.0	0.0	0.0	0.0	1	1.0287020715625748	-1.3389908771399328	220.0	1	1.11	0.95				
	8	1	0.0	0.0	0.0	0.0	1	1.0019388164823797	0.7739831692134123	400.0	1	1.05	0.95				
	9	1	0.0	0.0	0.0	0.0	1	1.0151629976166092	-0.30030517828710745	400.0	1	1.05	0.95				
	10	2	5.5035	4.05	0.0	0.0	1	1.0382757476968583	-5.159562797686997	220.0	1	1.11	0.95				
	11	1	0.0	0.0	0.0	0.0	1	1.0072288516634684	0.35439204599710405	220.0	1	1.11	0.95				
	12	1	0.0	0.0	0.0	0.0	1	1.0269031937298132	-2.7492912712751756	220.0	1	1.11	0.95				
	13	1	0.0	0.0	0.0	0.0	1	1.0327662479222948	-1.1340045960517111	220.0	1	1.11	0.95				
	14	1	0.0	0.0	0.0	0.0	1	0.9964807693726141	-0.38963374822924896	220.0	1	1.11	0.95				
	15	1	0.0	0.0	0.0	0.0	1	0.9935974909334808	-0.6034645669022958	400.0	1	1.05	0.95				
	16	2	24.696000000000005	45.0	0.0	0.0	1	1.0133435567581968	4.439636510938776	220.0	1	1.11	0.95				
	17	2	34.650000000000006	67.5	0.0	0.0	1	1.000403231992211	-0.23760147267230117	220.0	1	1.11	0.95				
	18	3	68.85	157.5	0.0	0.0	1	0.9675197874128482	-2.0383724813957545e-29	400.0	1	1.05	0.95				
	19	1	0.0	0.0	0.0	0.0	1	1.0328517314278598	-2.3700541221159903	220.0	1	1.11	0.95				
	20	1	0.0	0.0	0.0	0.0	1	0.9691056268996872	-1.1984883791433043	400.0	1	1.05	0.95				
	21	1	0.0	0.0	0.0	0.0	1	1.0296093586207633	-1.4248229946960325	220.0	1	1.11	0.95				
	22	1	0.0	0.0	0.0	0.0	1	1.009899588403653	-1.2586847956401341	220.0	1	1.11	0.95				
	23	1	0.0	0.0	0.0	0.0	1	1.049971660680114	0.18366222172396476	220.0	2	1.11	0.95				
	24	1	0.0	0.0	0.0	0.0	1	1.0619453975202597	0.03200824795491632	220.0	2	1.11	0.95				
	25	1	0.0	0.0	0.0	0.0	1	1.055105863315187	0.44646302570532337	220.0	2	1.11	0.95				
	26	1	0.0	0.0	0.0	0.0	1	1.048088369016726	0.5115975259594558	220.0	2	1.11	0.95				
	27	1	0.0	0.0	0.0	0.0	1	1.0346965824301557	0.32470809270267276	220.0	2	1.11	0.95				
	28	1	0.0	0.0	0.0	0.0	1	1.0347015540611038	0.32672846436767194	220.0	2	1.11	0.95				
	29	2	11.691	27.0	0.0	0.0	1	1.045478227907406	0.5841786715999031	220.0	2	1.11	0.95				
	30	2	11.691	27.0	0.0	0.0	1	1.045452872143589	0.5808084499279632	220.0	2	1.11	0.95				
	31	2	9.441	22.5	0.0	0.0	1	1.0037911491604814	4.290670261897249	400.0	2	1.05	0.95				
	32	1	0.0	0.0	0.0	0.0	1	1.0036948182188374	4.263749074963988	400.0	2	1.05	0.95				
	33	1	0.0	0.0	0.0	0.0	1	1.0328748110187316	-0.030674543470785996	220.0	2	1.11	0.95				
	34	1	0.0	0.0	0.0	0.0	1	1.0428887901059227	0.7010978543797942	400.0	2	1.05	0.95				
	35	1	0.0	0.0	0.0	0.0	1	1.0429354708597427	0.6989225643047651	400.0	2	1.05	0.95				
	36	1	0.0	0.0	0.0	0.0	1	0.9962175986177577	2.4550123114627875	400.0	2	1.05	0.95				
	37	1	0.0	0.0	0.0	0.0	1	1.0477063962802053	1.6941272182907372	220.0	2	1.11	0.95				
	38	1	0.0	0.0	0.0	0.0	1	1.0476801156825415	1.697756447219067	220.0	2	1.11	0.95				
	39	1	0.0	0.0	0.0	0.0	1	1.0101723944097858	2.5097520996545484	400.0	2	1.05	0.95				
	40	1	0.0	0.0	0.0	0.0	1	1.010203147655614	2.503723657823168	400.0	2	1.05	0.95				
	41	2	5.3955	13.5	0.0	0.0	1	1.0550940205703219	0.9898913894469746	220.0	2	1.11	0.95				
	42	2	5.3955	13.5	0.0	0.0	1	1.055075754294909	0.9843216435694169	220.0	2	1.11	0.95				
	43	2	10.791	27.0	0.0	0.0	1	1.0176419933152463	2.444615676104878	400.0	2	1.05	0.95				
	44	2	10.791	27.0	0.0	0.0	1	1.0176675233334653	2.4347681642217145	400.0	2	1.05	0.95				
	45	2	71.928	33.75	0.0	0.0	1	1.0434064015840219	0.1772002906134195	220.0	2	1.11	0.95				
	46	1	0.0	0.0	0.0	0.0	1	1.043429198723278	0.17835525016589315	220.0	2	1.11	0.95				
	47	1	0.0	0.0	0.0	0.0	1	1.037696899850675	-0.033472361954438805	220.0	2	1.11	0.95				
	48	1	0.0	0.0	0.0	0.0	1	1.0414487772969807	-0.1961612640096526	220.0	2	1.11	0.95				
	49	1	0.0	0.0	0.0	0.0	1	1.0414549790056207	-0.19624057100475947	220.0	2	1.11	0.95				
	50	1	0.0	0.0	0.0	0.0	1	1.0248820658138615	1.3582136553523	400.0	2	1.05	0.95				
	51	1	0.0	0.0	0.0	0.0	1	1.0250138757546272	1.3518207647555731	400.0	2	1.05	0.95				
	52	1	0.0	0.0	0.0	0.0	1	1.0495947132402312	-0.061882834511507105	220.0	2	1.11	0.95				
	53	1	0.0	0.0	0.0	0.0	1	1.051249020534279	0.05096459352225405	220.0	2	1.11	0.95				
	54	1	0.0	0.0	0.0	0.0	1	1.055346647606776	0.4627711089142177	220.0	2	1.11	0.95				
	55	1	0.0	0.0	0.0	0.0	1	1.043456221913719	2.9872394522124854	220.0	2	1.11	0.95				
	56	1	0.0	0.0	0.0	0.0	1	1.0173762833521347	0.8648521331981328	220.0	3	1.11	0.95				
	57	1	10.341000000000001	4.932	0.0	0.0	1	1.0654638598541382	2.0678003596518897	220.0	3	1.11	0.95				
	58	1	9.891	2.6055	0.0	0.0	1	1.0655661299357302	2.067025267960577	220.0	3	1.11	0.95				
	59	1	0.0	0.0	0.0	0.0	1	1.0392333210198625	8.246660449466084	220.0	3	1.11	0.95				
	60	1	0.0	0.0	0.0	0.0	1	1.0171417206094562	1.1182184056514335	220.0	3	1.11	0.95				
	61	1	0.0	0.0	0.0	0.0	1	1.0412564575384453	10.469051839158912	220.0	3	1.11	0.95				
	62	1	0.0	0.0	0.0	0.0	1	1.0412651886867321	10.474322789168133	220.0	3	1.11	0.95				
	63	2	16.816499999999998	23.7105	0.0	0.0	1	1.038538799273249	8.117513889264684	220.0	3	1.11	0.95				
	64	2	15.916499999999997	24.894000000000002	0.0	0.0	1	1.0341294239952619	6.265773097229631	220.0	3	1.11	0.95				
	65	1	6.025500000000001	0.9089999999999999	0.0	0.0	1	1.0334729650569303	5.994184097335831	220.0	3	1.11	0.95				
	66	1	0.0	0.0	0.0	0.0	1	1.0226802442767686	-5.14835664466016	220.0	3	1.11	0.95				
	67	2	27.18	41.445	0.0	0.0	1	0.964086130399127	-5.330519562624163	400.0	3	1.05	0.95				
	68	1	0.0	0.0	0.0	0.0	1	1.0167175996189823	-4.020228438919855	220.0	3	1.11	0.95				
	69	1	0.0	0.0	0.0	0.0	1	1.0258510667769172	5.256588909157352	220.0	3	1.11	0.95				
	70	1	0.0	0.0	0.0	0.0	1	1.018989985180696	1.8095119861390303	220.0	3	1.11	0.95				
	71	1	0.0	0.0	0.0	0.0	1	1.0187122090924388	5.203091076452129	220.0	3	1.11	0.95				
	72	1	0.0	0.0	0.0	0.0	1	1.0187122090924388	5.203091076452129	220.0	3	1.11	0.95				
	73	1	0.0	0.0	0.0	0.0	1	1.0205826442827144	2.3380605886340535	220.0	3	1.11	0.95				
	74	1	0.0	0.0	0.0	0.0	1	1.0194816982604804	1.2856100448694072	220.0	3	1.11	0.95				
	75	1	0.0	0.0	0.0	0.0	1	0.9684431998306703	-0.0751486343353763	400.0	3	1.05	0.95				
	76	1	0.0	0.0	0.0	0.0	1	0.9684230381440123	-0.07835121922035772	400.0	3	1.05	0.95				
	77	1	0.0	0.0	0.0	0.0	1	1.017522390471024	4.681414194665976	220.0	3	1.11	0.95				
	78	1	0.0	0.0	0.0	0.0	1	1.014481203578052	-0.3134866843332235	220.0	3	1.11	0.95				
	79	1	0.0	0.0	0.0	0.0	1	1.030909256146439	4.956770573306313	220.0	3	1.11	0.95				
	80	1	0.0	0.0	0.0	0.0	1	1.0657453615517163	2.0908588029549877	220.0	3	1.11	0.95				
	81	1	0.0	0.0	0.0	0.0	1	1.0657549234364379	2.0917878152592753	220.0	3	1.11	0.95				
	82	1	0.0	0.0	0.0	0.0	1	1.0411827163086742	9.592209904771293	220.0	3	1.11	0.95				
	83	2	7.195500000000001	10.3365	0.0	0.0	1	1.022530604641098	5.1363919358285495	220.0	3	1.11	0.95				
	84	2	7.105499999999999	10.021500000000001	0.0	0.0	1	1.0225934419037617	5.136611587905334	220.0	3	1.11	0.95				
	85	2	4.4955	7.654500000000001	0.0	0.0	1	1.0152910759817542	4.131400960479165	220.0	3	1.11	0.95				
	86	2	4.4955	7.497	0.0	0.0	1	1.0152797332207475	4.134962503905701	220.0	3	1.11	0.95				
	87	1	4.9905	7.2989999999999995	0.0	0.0	1	1.0276388119626905	3.7008217336541063	220.0	3	1.11	0.95				
	88	1	0.0	0.0	0.0	0.0	1	1.0276659571981688	3.7022460076623256	220.0	3	1.11	0.95				
	89	1	0.0	0.0	0.0	0.0	1	1.040073444735406	5.502143400025939	220.0	3	1.11	0.95				
	90	1	0.0	0.0	0.0	0.0	1	1.0245390305566615	3.891827804013186	220.0	3	1.11	0.95				
	91	1	0.0	0.0	0.0	0.0	1	1.0360865617075232	6.774437198979763	220.0	3	1.11	0.95				
	92	1	0.0	0.0	0.0	0.0	1	0.9711935309715639	0.13683688149806092	400.0	3	1.05	0.95				
	93	2	4.4955	7.3755000000000015	0.0	0.0	1	1.0360319349633693	6.26061662406195	220.0	3	1.11	0.95				
	94	1	0.0	0.0	0.0	0.0	1	1.036026148432706	6.26613542585801	220.0	3	1.11	0.95				
	95	2	3.1005000000000003	3.6675	0.0	0.0	1	1.0449597962296127	5.609613674917774	220.0	3	1.11	0.95				
	96	1	0.0	0.0	0.0	0.0	1	1.04497137779711	5.609180125811066	220.0	3	1.11	0.95				
	97	2	3.9104999999999994	2.367	0.0	0.0	1	1.0755371725900154	6.8554025254752595	220.0	3	1.11	0.95				
	98	1	0.0	0.0	0.0	0.0	1	1.0117732910587574	1.552948480595201	400.0	3	1.05	0.95				
	99	1	0.0	0.0	0.0	0.0	1	1.0118052868386724	1.5550605663269375	400.0	3	1.05	0.95				
	100	1	0.0	0.0	0.0	0.0	1	0.9871286913541575	0.7686269665650245	400.0	3	1.05	0.95				
	101	1	0.0	0.0	0.0	0.0	1	0.9871839667893989	0.7689575268062321	400.0	3	1.05	0.95				
	102	1	0.0	0.0	0.0	0.0	1	1.0422481410417814	5.480274986323383	220.0	3	1.11	0.95				
	103	2	8.140500000000001	10.692	0.0	0.0	1	1.0138628544389978	2.351719108153996	220.0	3	1.11	0.95				
	104	2	15.156	20.7495	0.0	0.0	1	1.0139072758475502	2.354520943795404	220.0	3	1.11	0.95				
	105	2	15.201	28.327500000000004	0.0	0.0	1	0.9559056243875512	-0.64520054383974	400.0	3	1.05	0.95				
	106	1	0.0	0.0	0.0	0.0	1	0.9560242375933042	-0.6362929102653406	400.0	3	1.05	0.95				
	107	1	0.0	0.0	0.0	0.0	1	1.0182868333870836	1.5846132284699022	220.0	3	1.11	0.95				
	108	1	0.0	0.0	0.0	0.0	1	1.0187546924575681	1.5967250319635213	220.0	3	1.11	0.95				
	109	2	0.45000000000000007	10.062	0.0	0.0	1	1.0425688956316421	11.289859742449961	220.0	3	1.11	0.95				
	110	2	0.45000000000000007	9.981	0.0	0.0	1	1.0425821478267605	11.295080026534315	220.0	3	1.11	0.95				
	111	2	11.920499999999999	8.1	0.0	0.0	1	1.0228372916196535	-2.623343371017532	220.0	4	1.11	0.95				
	112	1	0.0	0.0	0.0	0.0	1	1.0227743094171968	-2.6188557892351247	220.0	4	1.11	0.95				
	113	1	0.0	0.0	0.0	0.0	1	1.0406374296797358	-9.191735672774337	220.0	4	1.11	0.95				
	114	1	0.0	0.0	0.0	0.0	1	1.0458838948905078	-8.676903741949229	220.0	4	1.11	0.95				
	115	1	0.0	0.0	0.0	0.0	1	0.9570904210868194	-7.984751549859954	400.0	4	1.05	0.95				
	116	1	0.0	0.0	0.0	0.0	1	0.9571167772418996	-7.983812813481239	400.0	4	1.05	0.95				
	117	1	0.0	0.0	0.0	0.0	1	1.0514011191405601	-7.356389471524909	220.0	4	1.11	0.95				
	118	1	0.0	0.0	0.0	0.0	1	1.0242828900921523	-9.610592813241455	220.0	4	1.11	0.95				
	119	1	0.0	0.0	0.0	0.0	1	1.0242828900921523	-9.610592813241455	220.0	4	1.11	0.95				
	120	1	0.0	0.0	0.0	0.0	1	1.0289337242553434	-9.751740505768716	220.0	4	1.11	0.95				
	121	1	0.0	0.0	0.0	0.0	1	1.0489146108819811	-9.074131068905835	220.0	4	1.11	0.95				
	122	1	0.0	0.0	0.0	0.0	1	1.0489146108819811	-9.074131068905835	220.0	4	1.11	0.95				
	123	2	2.475	3.150000000000001	0.0	0.0	1	1.0373769575156793	-3.695364389613501	220.0	4	1.11	0.95				
	124	2	3.9555	7.650000000000001	0.0	0.0	1	1.0373872386599357	-3.694204771607928	220.0	4	1.11	0.95				
	125	2	16.065	8.235000000000001	0.0	0.0	1	1.0301898735817958	-8.648903134390796	220.0	4	1.11	0.95				
	126	1	11.376000000000001	7.155	0.0	0.0	1	1.0301617267000243	-8.645631041721149	220.0	4	1.11	0.95				
	127	2	11.569500000000001	6.885	0.0	0.0	1	0.986175726218077	-6.411503272402278	400.0	4	1.05	0.95				
	128	1	0.0	0.0	0.0	0.0	1	0.9861693542741954	-6.414849264338943	400.0	4	1.05	0.95				
	129	1	0.0	0.0	0.0	0.0	1	1.0448303912153716	-9.197454336519511	220.0	4	1.11	0.95				
	130	1	0.0	0.0	0.0	0.0	1	1.0300218027820849	-9.760893883463794	220.0	4	1.11	0.95				
	131	2	30.9015	31.5	0.0	0.0	1	1.049786124948248	-7.297516118084375	220.0	4	1.11	0.95				
	132	2	14.850000000000001	20.25	0.0	0.0	1	1.049791758974572	-7.296361167932344	220.0	4	1.11	0.95				
	133	1	0.0	0.0	0.0	0.0	1	0.9500311217244484	-7.318911754119443	400.0	4	1.05	0.95				
	134	1	0.0	0.0	0.0	0.0	1	0.9499999901411273	-7.317773183037462	400.0	4	1.05	0.95				
	135	1	0.0	0.0	0.0	0.0	1	1.0235153616615125	-9.649800294151724	220.0	4	1.11	0.95				
	136	1	0.0	0.0	0.0	0.0	1	1.0235153616615125	-9.649800294151724	220.0	4	1.11	0.95				
	137	1	0.0	0.0	0.0	0.0	1	0.9662227322808168	-7.3987484628968225	400.0	4	1.05	0.95				
	138	1	0.0	0.0	0.0	0.0	1	0.9662227322808168	-7.3987484628968225	400.0	4	1.05	0.95				
	139	2	14.940000000000001	10.17	0.0	0.0	1	1.0382065542930776	-3.7700153521284157	220.0	4	1.11	0.95				
	140	2	13.153500000000001	8.82	0.0	0.0	1	1.0382230674365176	-3.7722448822930694	220.0	4	1.11	0.95				
	141	1	0.0	0.0	0.0	0.0	1	1.0548088876066086	-7.8169807442273385	220.0	4	1.11	0.95				
	142	1	0.0	0.0	0.0	0.0	1	1.0229936824529422	-9.678679027572256	220.0	4	1.11	0.95				
	143	1	0.0	0.0	0.0	0.0	1	1.0574884485289078	-8.014760251184375	220.0	4	1.11	0.95				
	144	1	0.0	0.0	0.0	0.0	1	1.0574289088868685	-8.01412974330575	220.0	4	1.11	0.95				
	145	1	0.0	0.0	0.0	0.0	1	0.956224692937484	-7.763530725048727	400.0	4	1.05	0.95				
	146	1	0.0	0.0	0.0	0.0	1	0.956224692937484	-7.763530725048727	400.0	4	1.05	0.95				
	147	1	0.0	0.0	0.0	0.0	1	1.0398747630180398	-9.31650345145862	220.0	4	1.11	0.95				
	148	1	0.0	0.0	0.0	0.0	1	1.0399079326971314	-9.314818112091375	220.0	4	1.11	0.95				
	149	1	0.0	0.0	0.0	0.0	1	1.0555077189833377	-8.194432555125173	220.0	4	1.11	0.95				
	150	1	0.0	0.0	0.0	0.0	1	1.0416359499579817	-8.931629756287968	220.0	4	1.11	0.95				
	151	1	0.0	0.0	0.0	0.0	1	1.0416571971837199	-8.93304791055747	220.0	4	1.11	0.95				
	152	1	0.0	0.0	0.0	0.0	1	1.035235487584318	-8.37362868364605	220.0	4	1.11	0.95				
	153	1	0.0	0.0	0.0	0.0	1	1.035235487584318	-8.37362868364605	220.0	4	1.11	0.95				
	154	1	0.0	0.0	0.0	0.0	1	1.03175518365087	-9.914007184439598	220.0	4	1.11	0.95				
	155	1	0.0	0.0	0.0	0.0	1	1.0401040124516476	-2.952986933569645	220.0	5	1.11	0.95				
	156	1	0.0	0.0	0.0	0.0	1	1.0813963136089506	-3.083054019497062	220.0	5	1.11	0.95				
	157	1	0.0	0.0	0.0	0.0	1	0.987569043003025	-2.454923174108051	400.0	5	1.05	0.95				
	158	1	0.0	0.0	0.0	0.0	1	0.9875234079884655	-2.4405133924092945	400.0	5	1.05	0.95				
	159	1	0.0	0.0	0.0	0.0	1	0.9907810033777581	1.2446417372576863	400.0	5	1.05	0.95				
	160	1	0.0	0.0	0.0	0.0	1	0.9908035432728245	1.246455234288944	400.0	5	1.05	0.95				
	161	1	0.0	0.0	0.0	0.0	1	1.046757304097968	-2.1596778141283735	220.0	5	1.11	0.95				
	162	1	0.0	0.0	0.0	0.0	1	1.0467623010744933	-2.160208532030906	220.0	5	1.11	0.95				
	163	1	0.0	0.0	0.0	0.0	1	1.0742015164288496	-1.5524935347388105	220.0	5	1.11	0.95				
	164	1	0.0	0.0	0.0	0.0	1	1.0741860589347745	-1.556614282211122	220.0	5	1.11	0.95				
	165	1	0.0	0.0	0.0	0.0	1	0.9826955852631453	-1.4910925631506953	400.0	5	1.05	0.95				
	166	1	0.0	0.0	0.0	0.0	1	1.0486082520369369	-2.835286413167721	220.0	5	1.11	0.95				
	167	1	0.0	0.0	0.0	0.0	1	1.048643767015155	-2.8338930140857284	220.0	5	1.11	0.95				
	168	1	0.0	0.0	0.0	0.0	1	0.9985811667032262	-0.4765494068452361	400.0	5	1.05	0.95				
	169	1	0.0	0.0	0.0	0.0	1	0.9985914614108913	-0.48324570197300254	400.0	5	1.05	0.95				
	170	1	0.0	0.0	0.0	0.0	1	1.0311672398944352	-4.716956355554891	220.0	5	1.11	0.95				
	171	1	0.0	0.0	0.0	0.0	1	1.0311863391535254	-4.717386980391735	220.0	5	1.11	0.95				
	172	1	0.0	0.0	0.0	0.0	1	1.0537259612738905	-3.1581670640030333	220.0	5	1.11	0.95				
	173	1	0.0	0.0	0.0	0.0	1	1.0536911326518683	-3.16069578831312	220.0	5	1.11	0.95				
	174	1	0.0	0.0	0.0	0.0	1	1.0394271567032711	-3.909799885802318	220.0	5	1.11	0.95				
	175	1	0.0	0.0	0.0	0.0	1	1.0394347621424351	-3.9088689622896924	220.0	5	1.11	0.95				
	176	2	0.0	18.000000000000004	0.0	0.0	1	0.9797779385418071	3.177909769464802	400.0	5	1.05	0.95				
	177	2	0.0	18.000000000000004	0.0	0.0	1	0.9797419203296434	3.1778196970895216	400.0	5	1.05	0.95				
	178	1	0.0	0.0	0.0	0.0	1	1.0662684614185793	-3.7387101020929383	220.0	5	1.11	0.95				
	179	1	0.0	0.0	0.0	0.0	1	1.0662785065441003	-3.7351434239374828	220.0	5	1.11	0.95				
	180	2	152.93250000000003	22.32	0.0	0.0	2	0.9499999900927272	-2.03334870673935	400.0	6	1.05	0.95				
	181	2	0.0	0.0	0.0	0.0	3	1.023837476108258	11.170541319558101	220.0	6	1.11	0.95				
	182	2	0.0	0.0	0.0	0.0	5	0.9502669378818085	-6.987126334259807	400.0	6	1.05	0.95				
	183	1	67.5	0.0	0.0	0.0	3	1.0500000104906007	0.2612738972648815	400.0	6	1.05	0.95				
	184	2	142.803	22.634999999999998	0.0	0.0	2	1.024385272629212	5.057178924680509	220.0	6	1.11	0.95				
	185	2	163.0935	16.515	0.0	0.0	2	0.9499999901077043	-2.445510121238599	400.0	6	1.05	0.95				
	186	2	14.9985	0.45000000000000007	0.0	0.0	5	1.02577460106273	-8.687269764850482	220.0	6	1.11	0.95				
	187	1	3.2039999999999997	0.675	0.0	0.0	1	1.0590246191905741	-4.624411987500211	110.0	1	1.12	0.95				
	188	1	3.4334999999999996	0.45000000000000007	0.0	0.0	1	1.0338034141807484	-9.104440112236821	110.0	1	1.12	0.95				
	189	1	4.3965	3.9149999999999996	0.0	0.0	1	1.0158859334592456	-4.507340523981442	110.0	1	1.12	0.95				
	190	1	2.754	0.675	0.0	0.0	1	1.0364878647498261	0.7695188393206711	110.0	1	1.12	0.95				
	191	1	2.754	0.7200000000000001	0.0	0.0	1	1.0190366966118114	-2.5273337507514837	110.0	1	1.12	0.95				
	192	2	13.752	5.4	0.0	0.0	1	1.08711713768909	-2.0977036268474167	110.0	1	1.12	0.95				
	193	1	6.876	1.35	0.0	0.0	1	1.087000920104086	-2.1663008434877686	110.0	1	1.12	0.95				
	194	1	0.0	0.0	0.0	0.0	1	1.0858610720817372	-2.3453372332942783	110.0	1	1.12	0.95				
	195	1	3.6630000000000003	0.9000000000000001	0.0	0.0	1	1.0484496508673313	-2.101131327412726	110.0	1	1.12	0.95				
	196	2	3.114	0.675	0.0	0.0	1	1.050955318020888	-11.708778064872739	110.0	1	1.12	0.95				
	197	1	3.114	0.675	0.0	0.0	1	1.0250640496759438	-4.4816610376881005	110.0	1	1.12	0.95				
	198	2	5.5440000000000005	0.765	0.0	0.0	1	1.049069441391021	-2.9604834120902614	110.0	1	1.12	0.95				
	199	1	0.6435000000000001	0.22500000000000003	0.0	0.0	1	1.046922645033414	-1.42252793206955	110.0	1	1.12	0.95				
	200	1	0.48600000000000004	0.22500000000000003	0.0	0.0	1	1.0908222243238688	-3.3687851286778945	110.0	1	1.12	0.95				
...
];

%% generator data
%    bus    Pg    Qg    Qmax    Qmin    Vg    mBase    status    Pmax    Pmin    Pc1    Pc2    Qc1min    Qc1max    Qc2min    Qc2max    ramp_agc    ramp_10    ramp_30    ramp_q    apf
mpc.gen = [
	10	-9.960625548882455e-7	-8.639169638016384e-7	120.0	0.0	1.0	168.0	1	400.0	0.0	0.0	0.0	0.0	0.0	0.0	0.0	0.0	0.0	0.0	0.0	0.0				
	16	720.0000071940685	-40.00000048493052	440.00000000000006	-40.0	1.0	823.0	1	720.0	0.0	0.0	0.0	0.0	0.0	0.0	0.0	0.0	0.0	0.0	0.0	0.0				
	17	-9.93038823822512e-7	-60.000000565913204	660.0	-60.0	1.0	1234.0	1	1080.0	0.0	0.0	0.0	0.0	0.0	0.0	0.0	0.0	0.0	0.0	0.0	0.0				
	18	-9.970623613403953e-7	-140.0000011606473	1540.0	-140.0	1.0	2879.0	1	2520.0	0.0	0.0	0.0	0.0	0.0	0.0	0.0	0.0	0.0	0.0	0.0	0.0				
	29	-9.981196330040145e-7	-9.069786205228621e-7	240.0	0.0	1.0	511.0	1	400.0	0.0	0.0	0.0	0.0	0.0	0.0	0.0	0.0	0.0	0.0	0.0	0.0				
	30	-9.9827413903732e-7	-9.070060491243045e-7	240.0	0.0	1.0	511.0	1	800.0	0.0	0.0	0.0	0.0	0.0	0.0	0.0	0.0	0.0	0.0	0.0	0.0				
	31	1000.0000099631972	-9.237971872270562e-7	350.0	0.0	1.0	420.0	1	1000.0	0.0	0.0	0.0	0.0	0.0	0.0	0.0	0.0	0.0	0.0	0.0	0.0				
	41	-9.942079538168336e-7	-9.466831306489944e-7	120.0	0.0	1.0	241.0	1	200.0	0.0	0.0	0.0	0.0	0.0	0.0	0.0	0.0	0.0	0.0	0.0	0.0				
	42	-9.97855460986865e-7	-9.466541567573449e-7	120.0	0.0	1.0	241.0	1	409.99999999999994	0.0	0.0	0.0	0.0	0.0	0.0	0.0	0.0	0.0	0.0	0.0	0.0				
	43	358.5462335089079	-9.582704440460838e-7	240.0	0.0	1.0	482.0	1	409.99999999999994	0.0	0.0	0.0	0.0	0.0	0.0	0.0	0.0	0.0	0.0	0.0	0.0				
	44	-9.854136737892489e-7	-9.582999478732498e-7	240.0	0.0	1.0	482.0	1	409.99999999999994	0.0	0.0	0.0	0.0	0.0	0.0	0.0	0.0	0.0	0.0	0.0	0.0				
	45	42.2000009979528	-9.111046254388883e-7	21.0	0.0	1.0	49.0	1	42.2	0.0	0.0	0.0	0.0	0.0	0.0	0.0	0.0	0.0	0.0	0.0	0.0				
	63	650.0000064618985	-4.5968133048479524e-7	302.0	0.0	1.0	473.0	1	650.0	0.0	0.0	0.0	0.0	0.0	0.0	0.0	0.0	0.0	0.0	0.0	0.0				
	64	-9.811171235464368e-7	1.9999994395188125	311.0	2.0	1.0	475.0	1	450.0	0.0	0.0	0.0	0.0	0.0	0.0	0.0	0.0	0.0	0.0	0.0	0.0				
	67	-9.593751615966272e-7	7.738723448539033e-10	449.0	0.0	1.0	864.0	1	750.0	0.0	0.0	0.0	0.0	0.0	0.0	0.0	0.0	0.0	0.0	0.0	0.0				
	83	225.0000022399811	-88.9940962188016	190.0	-89.0	1.0	239.0	1	225.0	0.0	0.0	0.0	0.0	0.0	0.0	0.0	0.0	0.0	0.0	0.0	0.0				
	84	-9.86262128315109e-7	47.31369251241684	190.0	-89.0	1.0	251.0	1	225.0	0.0	0.0	0.0	0.0	0.0	0.0	0.0	0.0	0.0	0.0	0.0	0.0				
	85	-9.941818588882589e-7	-17.42946322340658	125.0	-50.0	1.0	133.0	1	120.0	0.0	0.0	0.0	0.0	0.0	0.0	0.0	0.0	0.0	0.0	0.0	0.0				
	86	-9.967478635458295e-7	-49.99979897291909	125.0	-50.0	1.0	133.0	1	120.0	0.0	0.0	0.0	0.0	0.0	0.0	0.0	0.0	0.0	0.0	0.0	0.0				
	93	-9.932396880258841e-7	4.999999335966619	90.0	5.0	1.0	123.0	1	120.0	0.0	0.0	0.0	0.0	0.0	0.0	0.0	0.0	0.0	0.0	0.0	0.0				
	95	-9.952814065003283e-7	26.99999918734701	68.0	27.0	1.0	105.0	1	110.00000000000001	0.0	0.0	0.0	0.0	0.0	0.0	0.0	0.0	0.0	0.0	0.0	0.0				
	97	87.60000099785236	26.999999151148145	68.0	27.0	1.0	105.0	1	87.6	0.0	0.0	0.0	0.0	0.0	0.0	0.0	0.0	0.0	0.0	0.0	0.0				
	103	-9.979679952360178e-7	-81.99934235964737	177.0	-82.0	1.0	239.0	1	400.0	0.0	0.0	0.0	0.0	0.0	0.0	0.0	0.0	0.0	0.0	0.0	0.0				
	104	-9.951428047654966e-7	10.420475965778007	379.0	-177.0	1.0	490.0	1	225.0	0.0	0.0	0.0	0.0	0.0	0.0	0.0	0.0	0.0	0.0	0.0	0.0				
	105	-9.943783184699818e-7	-165.00000116552883	353.0	-165.0	1.0	502.0	1	430.0	0.0	0.0	0.0	0.0	0.0	0.0	0.0	0.0	0.0	0.0	0.0	0.0				
	109	250.00000249783704	2.292574681800428e-6	65.0	0.0	1.0	277.0	1	250.0	0.0	0.0	0.0	0.0	0.0	0.0	0.0	0.0	0.0	0.0	0.0	0.0				
	110	250.00000249783704	2.2899535204513725e-6	65.0	0.0	1.0	280.0	1	250.0	0.0	0.0	0.0	0.0	0.0	0.0	0.0	0.0	0.0	0.0	0.0	0.0				
	111	-9.973859853839836e-7	-2.1278684528445627e-7	270.0	0.0	1.0	401.0	1	360.0	0.0	0.0	0.0	0.0	0.0	0.0	0.0	0.0	0.0	0.0	0.0	0.0				
	123	-9.980626983532979e-7	-4.996648932211108e-7	40.0	0.0	1.0	98.0	1	110.00000000000001	0.0	0.0	0.0	0.0	0.0	0.0	0.0	0.0	0.0	0.0	0.0	0.0				
	124	-9.765905316439013e-7	-5.010426335533591e-7	90.0	0.0	1.0	132.0	1	125.0	0.0	0.0	0.0	0.0	0.0	0.0	0.0	0.0	0.0	0.0	0.0	0.0				
	125	-9.983100728362336e-7	1.2908274378809207e-6	360.0	0.0	1.0	654.0	1	860.0	0.0	0.0	0.0	0.0	0.0	0.0	0.0	0.0	0.0	0.0	0.0	0.0				
	127	-9.320411857458302e-7	-4.816329798876262e-7	360.0	0.0	1.0	540.0	1	690.0	0.0	0.0	0.0	0.0	0.0	0.0	0.0	0.0	0.0	0.0	0.0	0.0				
	131	-9.977459462991818e-7	1.8506116028540973e-7	360.0	0.0	1.0	696.0	1	1060.0	0.0	0.0	0.0	0.0	0.0	0.0	0.0	0.0	0.0	0.0	0.0	0.0				
	132	-9.980600556623872e-7	1.845087688965266e-7	480.0	0.0	1.0	732.0	1	600.0	0.0	0.0	0.0	0.0	0.0	0.0	0.0	0.0	0.0	0.0	0.0	0.0				
	139	-9.977689009122001e-7	-5.195131727720814e-7	360.0	0.0	1.0	714.0	1	600.0	0.0	0.0	0.0	0.0	0.0	0.0	0.0	0.0	0.0	0.0	0.0	0.0				
	140	-9.918091586352139e-7	-5.189041605230451e-7	120.0	0.0	1.0	240.0	1	200.0	0.0	0.0	0.0	0.0	0.0	0.0	0.0	0.0	0.0	0.0	0.0	0.0				
	176	600.0000059979465	-119.99999706192055	220.00000000000003	-120.0	1.0	430.0	1	600.0	0.0	0.0	0.0	0.0	0.0	0.0	0.0	0.0	0.0	0.0	0.0	0.0				
	177	200.00000199794647	-119.99999706591194	220.00000000000003	-120.0	1.0	430.0	1	200.0	0.0	0.0	0.0	0.0	0.0	0.0	0.0	0.0	0.0	0.0	0.0	0.0				
	180	0.0	-17.408199737707836	99999.0	-99999.0	1.0	7485.0	1	0.0	0.0	0.0	0.0	0.0	0.0	0.0	0.0	0.0	0.0	0.0	0.0	0.0				
	181	175.00000174783068	-47.672684119746044	99999.0	-99999.0	1.0	210.0	1	175.0	0.0	0.0	0.0	0.0	0.0	0.0	0.0	0.0	0.0	0.0	0.0	0.0				
	182	307.59000307392466	-22.141280782560113	99999.0	-99999.0	1.0	13465.0	1	307.59	0.0	0.0	0.0	0.0	0.0	0.0	0.0	0.0	0.0	0.0	0.0	0.0				
	184	0.0	19.831217662101857	99999.0	-99999.0	1.0	8353.0	1	0.0	0.0	0.0	0.0	0.0	0.0	0.0	0.0	0.0	0.0	0.0	0.0	0.0				
	185	0.0	-17.270410842488904	99999.0	-99999.0	1.0	14254.0	1	0.0	0.0	0.0	0.0	0.0	0.0	0.0	0.0	0.0	0.0	0.0	0.0	0.0				
	186	0.0	-59.68363870456174	99999.0	-99999.0	1.0	7401.0	1	0.0	0.0	0.0	0.0	0.0	0.0	0.0	0.0	0.0	0.0	0.0	0.0	0.0				
	192	95.00000099794735	-9.018835650696151e-7	50.0	0.0	1.0	114.0	1	95.0	0.0	0.0	0.0	0.0	0.0	0.0	0.0	0.0	0.0	0.0	0.0	0.0				
	196	0.900000998100638	1.0000006676805138	1.0	0.0	1.0	1.0	1	0.9000000000000001	0.0	0.0	0.0	0.0	0.0	0.0	0.0	0.0	0.0	0.0	0.0	0.0				
	198	0.8000009979869805	-7.778747350822436e-7	1.0	0.0	1.0	1.0	1	0.8	0.0	0.0	0.0	0.0	0.0	0.0	0.0	0.0	0.0	0.0	0.0	0.0				
	205	15.000000997964912	1.3228108674286645e-6	10.0	0.0	1.0	18.0	1	15.0	0.0	0.0	0.0	0.0	0.0	0.0	0.0	0.0	0.0	0.0	0.0	0.0				
	213	11.000000998004833	-7.539219052020237e-7	8.0	0.0	1.0	13.0	1	11.0	0.0	0.0	0.0	0.0	0.0	0.0	0.0	0.0	0.0	0.0	0.0	0.0				
	264	2.500000998018233	-7.866197843579001e-7	2.0	0.0	1.0	3.0	1	2.5	0.0	0.0	0.0	0.0	0.0	0.0	0.0	0.0	0.0	0.0	0.0	0.0				
	269	6.00000099798016	-8.972701836704171e-7	5.0	0.0	1.0	7.0	1	6.0	0.0	0.0	0.0	0.0	0.0	0.0	0.0	0.0	0.0	0.0	0.0	0.0				
	277	70.00000099795754	1.5006090072679856e-5	42.0	0.0	1.0	84.0	1	70.0	0.0	0.0	0.0	0.0	0.0	0.0	0.0	0.0	0.0	0.0	0.0	0.0				
	278	60.000000997965806	-6.379212338057568e-8	40.0	0.0	1.0	72.0	1	60.0	0.0	0.0	0.0	0.0	0.0	0.0	0.0	0.0	0.0	0.0	0.0	0.0				
	279	60.00000099795518	5.670579444932522e-6	40.0	0.0	1.0	72.0	1	60.0	0.0	0.0	0.0	0.0	0.0	0.0	0.0	0.0	0.0	0.0	0.0	0.0				
	281	120.00000119794856	2.885040234236435e-7	90.0	0.0	1.0	144.0	1	120.0	0.0	0.0	0.0	0.0	0.0	0.0	0.0	0.0	0.0	0.0	0.0	0.0				
	282	40.0000009979595	1.0544092837187865e-7	40.0	0.0	1.0	48.0	1	40.0	0.0	0.0	0.0	0.0	0.0	0.0	0.0	0.0	0.0	0.0	0.0	0.0				
	289	2.500000997953247	5.694120165946781e-7	3.0	0.0	1.0	3.0	1	2.5	0.0	0.0	0.0	0.0	0.0	0.0	0.0	0.0	0.0	0.0	0.0	0.0				
	294	2.000000998031235	-8.709625205854286e-7	1.0	0.0	1.0	2.0	1	2.0	0.0	0.0	0.0	0.0	0.0	0.0	0.0	0.0	0.0	0.0	0.0	0.0				
	314	1.5000009980259095	-8.161425331606966e-7	1.0	0.0	1.0	2.0	1	1.5	0.0	0.0	0.0	0.0	0.0	0.0	0.0	0.0	0.0	0.0	0.0	0.0				
	328	44.00000099795474	-8.718767675166465e-7	21.0	0.0	1.0	53.0	1	44.0	0.0	0.0	0.0	0.0	0.0	0.0	0.0	0.0	0.0	0.0	0.0	0.0				
	329	44.000000997967895	-4.4322525594243376e-7	21.0	0.0	1.0	53.0	1	44.0	0.0	0.0	0.0	0.0	0.0	0.0	0.0	0.0	0.0	0.0	0.0	0.0				
	330	44.0000009979539	-8.981375963935142e-7	21.0	0.0	1.0	53.0	1	44.0	0.0	0.0	0.0	0.0	0.0	0.0	0.0	0.0	0.0	0.0	0.0	0.0				
	331	43.0000009979769	-7.621275838003375e-7	21.0	0.0	1.0	52.0	1	43.0	0.0	0.0	0.0	0.0	0.0	0.0	0.0	0.0	0.0	0.0	0.0	0.0				
	334	1.5000009980183753	-8.902085871091019e-7	1.0	0.0	1.0	2.0	1	1.5	0.0	0.0	0.0	0.0	0.0	0.0	0.0	0.0	0.0	0.0	0.0	0.0				
	346	-9.972345470285626e-7	-8.439381904620284e-7	120.0	0.0	1.0	180.0	1	200.0	0.0	0.0	0.0	0.0	0.0	0.0	0.0	0.0	0.0	0.0	0.0	0.0				
	347	10.00000099802607	-8.801672124056907e-7	15.0	0.0	1.0	12.0	1	10.0	0.0	0.0	0.0	0.0	0.0	0.0	0.0	0.0	0.0	0.0	0.0	0.0				
	359	1.500000997988446	-7.615247618515669e-7	1.0	0.0	1.0	2.0	1	1.5	0.0	0.0	0.0	0.0	0.0	0.0	0.0	0.0	0.0	0.0	0.0	0.0				
	365	5.100000997961673	-8.069466035226425e-7	3.0	0.0	1.0	6.0	1	5.1	0.0	0.0	0.0	0.0	0.0	0.0	0.0	0.0	0.0	0.0	0.0	0.0				
	382	8.000000997969565	-5.769939638312671e-7	5.0	0.0	1.0	10.0	1	8.0	0.0	0.0	0.0	0.0	0.0	0.0	0.0	0.0	0.0	0.0	0.0	0.0				
	383	8.000000997973917	-6.527838098187861e-7	5.0	0.0	1.0	10.0	1	8.0	0.0	0.0	0.0	0.0	0.0	0.0	0.0	0.0	0.0	0.0	0.0	0.0				
	385	6.000000997986965	-7.070812000464596e-7	4.0	0.0	1.0	7.0	1	6.0	0.0	0.0	0.0	0.0	0.0	0.0	0.0	0.0	0.0	0.0	0.0	0.0				
	390	4.5000009979829745	0.1267550082479292	3.0	0.0	1.0	5.0	1	4.5	0.0	0.0	0.0	0.0	0.0	0.0	0.0	0.0	0.0	0.0	0.0	0.0				
	395	10.000000997991803	-8.959384376570625e-7	8.0	0.0	1.0	12.0	1	10.0	0.0	0.0	0.0	0.0	0.0	0.0	0.0	0.0	0.0	0.0	0.0	0.0				
	404	3.0000009979964646	1.0104722347072472	3.0	0.0	1.0	4.0	1	3.0	0.0	0.0	0.0	0.0	0.0	0.0	0.0	0.0	0.0	0.0	0.0	0.0				
	426	3.2000009980383535	-8.753844428633093e-7	2.0	0.0	1.0	4.0	1	3.2	0.0	0.0	0.0	0.0	0.0	0.0	0.0	0.0	0.0	0.0	0.0	0.0				
	444	1.0000009979938722	-7.317740078655779e-7	1.0	0.0	1.0	1.0	1	1.0	0.0	0.0	0.0	0.0	0.0	0.0	0.0	0.0	0.0	0.0	0.0	0.0				
	451	4.50000099796542	-7.865168228071193e-7	3.0	0.0	1.0	5.0	1	4.5	0.0	0.0	0.0	0.0	0.0	0.0	0.0	0.0	0.0	0.0	0.0	0.0				
	482	1.0000009979851687	-6.921896230448852e-7	1.0	0.0	1.0	1.0	1	1.0	0.0	0.0	0.0	0.0	0.0	0.0	0.0	0.0	0.0	0.0	0.0	0.0				
	492	2.00000099798383	-8.43950666604699e-7	1.0	0.0	1.0	2.0	1	2.0	0.0	0.0	0.0	0.0	0.0	0.0	0.0	0.0	0.0	0.0	0.0	0.0				
	493	234.00000233792073	-7.998163593003563e-7	130.0	0.0	1.0	281.0	1	234.0	0.0	0.0	0.0	0.0	0.0	0.0	0.0	0.0	0.0	0.0	0.0	0.0				
	494	234.00000233790635	4.3501853077276955	130.0	0.0	1.0	281.0	1	234.0	0.0	0.0	0.0	0.0	0.0	0.0	0.0	0.0	0.0	0.0	0.0	0.0				
	514	115.00000114796474	-6.623198944548971e-7	90.0	0.0	1.0	138.0	1	114.99999999999999	0.0	0.0	0.0	0.0	0.0	0.0	0.0	0.0	0.0	0.0	0.0	0.0				
	515	115.00000114796423	-4.5932953777039e-7	90.0	0.0	1.0	138.0	1	114.99999999999999	0.0	0.0	0.0	0.0	0.0	0.0	0.0	0.0	0.0	0.0	0.0	0.0				
	525	6.0000009980115285	1.307563844481357e-7	4.0	0.0	1.0	7.0	1	6.0	0.0	0.0	0.0	0.0	0.0	0.0	0.0	0.0	0.0	0.0	0.0	0.0				
	536	6.000000998005076	-7.321681073858798e-7	6.0	0.0	1.0	7.0	1	6.0	0.0	0.0	0.0	0.0	0.0	0.0	0.0	0.0	0.0	0.0	0.0	0.0				
	537	3.50000099801985	-7.868954213989675e-7	3.0	0.0	1.0	4.0	1	3.5000000000000004	0.0	0.0	0.0	0.0	0.0	0.0	0.0	0.0	0.0	0.0	0.0	0.0				
	556	2.7000009979763804	-9.34489916017204e-7	1.0	0.0	1.0	3.0	1	2.7	0.0	0.0	0.0	0.0	0.0	0.0	0.0	0.0	0.0	0.0	0.0	0.0				
	580	1.6000009979461822	-9.287952135702212e-7	1.0	0.0	1.0	2.0	1	1.6	0.0	0.0	0.0	0.0	0.0	0.0	0.0	0.0	0.0	0.0	0.0	0.0				
	584	2.700000997934795	-8.782336721814585e-7	2.0	0.0	1.0	3.0	1	2.7	0.0	0.0	0.0	0.0	0.0	0.0	0.0	0.0	0.0	0.0	0.0	0.0				
	585	4.000000997934272	-8.780669653900927e-7	2.0	0.0	1.0	5.0	1	4.0	0.0	0.0	0.0	0.0	0.0	0.0	0.0	0.0	0.0	0.0	0.0	0.0				
	607	0.8000009979594799	0.0	0.0	0.0	1.0	1.0	1	0.8	0.0	0.0	0.0	0.0	0.0	0.0	0.0	0.0	0.0	0.0	0.0	0.0				
	612	-9.976629803856407e-7	-8.623836995546816e-7	120.0	0.0	1.0	256.0	1	200.0	0.0	0.0	0.0	0.0	0.0	0.0	0.0	0.0	0.0	0.0	0.0	0.0				
	613	-9.969975846669771e-7	-8.624071774152496e-7	120.0	0.0	1.0	256.0	1	200.0	0.0	0.0	0.0	0.0	0.0	0.0	0.0	0.0	0.0	0.0	0.0	0.0				
	615	1.4000009979669175	-9.101159516959483e-7	1.0	0.0	1.0	2.0	1	1.4	0.0	0.0	0.0	0.0	0.0	0.0	0.0	0.0	0.0	0.0	0.0	0.0				
	623	7.600000997947927	-9.007193343997004e-7	5.0	0.0	1.0	9.0	1	7.6	0.0	0.0	0.0	0.0	0.0	0.0	0.0	0.0	0.0	0.0	0.0	0.0				
	639	9.60000099794835	-9.27728505731602e-7	4.0	0.0	1.0	12.0	1	9.6	0.0	0.0	0.0	0.0	0.0	0.0	0.0	0.0	0.0	0.0	0.0	0.0				
	651	4.700000997957324	-9.263286488108528e-7	2.0	0.0	1.0	6.0	1	4.7	0.0	0.0	0.0	0.0	0.0	0.0	0.0	0.0	0.0	0.0	0.0	0.0				
	654	1.4000009979575254	-9.479914825705234e-7	1.0	0.0	1.0	2.0	1	1.4	0.0	0.0	0.0	0.0	0.0	0.0	0.0	0.0	0.0	0.0	0.0	0.0				
	664	6.200000997960263	-9.350742482447673e-7	6.0	0.0	1.0	7.0	1	6.2	0.0	0.0	0.0	0.0	0.0	0.0	0.0	0.0	0.0	0.0	0.0	0.0				
	670	2.7000009979613058	-9.607022210020622e-7	2.0	0.0	1.0	3.0	1	2.7	0.0	0.0	0.0	0.0	0.0	0.0	0.0	0.0	0.0	0.0	0.0	0.0				
	674	1.0000009979768132	0.0	0.0	0.0	1.0	1.0	1	1.0	0.0	0.0	0.0	0.0	0.0	0.0	0.0	0.0	0.0	0.0	0.0	0.0				
	688	-9.976501261748586e-7	-9.37372954407661e-7	120.0	0.0	1.0	242.0	1	202.0	0.0	0.0	0.0	0.0	0.0	0.0	0.0	0.0	0.0	0.0	0.0	0.0				
	692	1.4000009979765644	-8.923441470834955e-7	1.0	0.0	1.0	2.0	1	1.4	0.0	0.0	0.0	0.0	0.0	0.0	0.0	0.0	0.0	0.0	0.0	0.0				
	699	3.8000009979519036	-9.61939710891473e-7	2.0	0.0	1.0	5.0	1	3.8	0.0	0.0	0.0	0.0	0.0	0.0	0.0	0.0	0.0	0.0	0.0	0.0				
	712	1.2000009979528241	-9.081582872213837e-7	1.0	0.0	1.0	1.0	1	1.2	0.0	0.0	0.0	0.0	0.0	0.0	0.0	0.0	0.0	0.0	0.0	0.0				
	730	6.900000997945514	-9.622673109481993e-7	3.0	0.0	1.0	8.0	1	6.9	0.0	0.0	0.0	0.0	0.0	0.0	0.0	0.0	0.0	0.0	0.0	0.0				
	732	1.1000009979737033	-9.54145905788282e-7	1.0	0.0	1.0	1.0	1	1.1	0.0	0.0	0.0	0.0	0.0	0.0	0.0	0.0	0.0	0.0	0.0	0.0				
	735	4.1000009979501675	-9.261075379914105e-7	2.0	0.0	1.0	5.0	1	4.1	0.0	0.0	0.0	0.0	0.0	0.0	0.0	0.0	0.0	0.0	0.0	0.0				
	740	4.000000997885348	-9.66761252417376e-7	1.0	0.0	1.0	5.0	1	4.0	0.0	0.0	0.0	0.0	0.0	0.0	0.0	0.0	0.0	0.0	0.0	0.0				
	744	134.0000013378343	-9.640482289976238e-7	60.0	0.0	1.0	161.0	1	134.0	0.0	0.0	0.0	0.0	0.0	0.0	0.0	0.0	0.0	0.0	0.0	0.0				
	754	-9.937835686067403e-7	-9.45599320387038e-7	30.0	0.0	1.0	54.0	1	80.0	0.0	0.0	0.0	0.0	0.0	0.0	0.0	0.0	0.0	0.0	0.0	0.0				
	755	-9.979338201637703e-7	-9.442216653231684e-7	80.0	0.0	1.0	110.0	1	250.0	0.0	0.0	0.0	0.0	0.0	0.0	0.0	0.0	0.0	0.0	0.0	0.0				
	760	3.100000997941622	-9.038955394745836e-7	2.0	0.0	1.0	4.0	1	3.1	0.0	0.0	0.0	0.0	0.0	0.0	0.0	0.0	0.0	0.0	0.0	0.0				
	766	2.10000099793183	-8.814144917307638e-7	1.0	0.0	1.0	3.0	1	2.1	0.0	0.0	0.0	0.0	0.0	0.0	0.0	0.0	0.0	0.0	0.0	0.0				
	784	0.7000009979793361	0.0	0.0	0.0	1.0	1.0	1	0.7	0.0	0.0	0.0	0.0	0.0	0.0	0.0	0.0	0.0	0.0	0.0	0.0				
	790	49.80000099793358	35.0	35.0	35.0	1.0	60.0	1	49.8	0.0	0.0	0.0	0.0	0.0	0.0	0.0	0.0	0.0	0.0	0.0	0.0				
	795	1.890000997873843	1.0	1.0	1.0	1.0	2.0	1	1.8900000000000001	0.0	0.0	0.0	0.0	0.0	0.0	0.0	0.0	0.0	0.0	0.0	0.0				
	798	2.9900009979281683	3.0	3.0	3.0	1.0	4.0	1	2.99	0.0	0.0	0.0	0.0	0.0	0.0	0.0	0.0	0.0	0.0	0.0	0.0				
	814	44.920000997876585	7.245227674360678	42.0	0.0	1.0	54.0	1	44.92	0.0	0.0	0.0	0.0	0.0	0.0	0.0	0.0	0.0	0.0	0.0	0.0				
	834	-9.958697082811898e-7	41.2782131437278	83.0	0.0	1.0	110.0	1	55.00000000000001	0.0	0.0	0.0	0.0	0.0	0.0	0.0	0.0	0.0	0.0	0.0	0.0				
	878	2.990000997903007	0.0	0.0	0.0	1.0	4.0	1	2.99	0.0	0.0	0.0	0.0	0.0	0.0	0.0	0.0	0.0	0.0	0.0	0.0				
	884	2.4900009979469266	0.0	0.0	0.0	1.0	3.0	1	2.49	0.0	0.0	0.0	0.0	0.0	0.0	0.0	0.0	0.0	0.0	0.0	0.0				
	892	31.870000997942782	6.000001302135762	42.0	6.0	1.0	38.0	1	31.869999999999997	0.0	0.0	0.0	0.0	0.0	0.0	0.0	0.0	0.0	0.0	0.0	0.0				
	895	8.960000997949301	7.000000000000001	7.000000000000001	7.000000000000001	1.0	11.0	1	8.96	0.0	0.0	0.0	0.0	0.0	0.0	0.0	0.0	0.0	0.0	0.0	0.0				
	901	3.6800009978742465	2.0	2.0	2.0	1.0	4.0	1	3.6799999999999997	0.0	0.0	0.0	0.0	0.0	0.0	0.0	0.0	0.0	0.0	0.0	0.0				
	910	4.580000997880389	3.0	3.0	3.0	1.0	6.0	1	4.58	0.0	0.0	0.0	0.0	0.0	0.0	0.0	0.0	0.0	0.0	0.0	0.0				
	911	-9.841637052622255e-7	1.1155270255353055e-5	224.00000000000003	0.0	1.0	415.0	1	370.0	0.0	0.0	0.0	0.0	0.0	0.0	0.0	0.0	0.0	0.0	0.0	0.0				
	912	-9.970055828914197e-7	0.0009592798961976899	224.00000000000003	0.0	1.0	415.0	1	370.0	0.0	0.0	0.0	0.0	0.0	0.0	0.0	0.0	0.0	0.0	0.0	0.0				
	914	15.93000099793635	10.0	10.0	10.0	1.0	19.0	1	15.93	0.0	0.0	0.0	0.0	0.0	0.0	0.0	0.0	0.0	0.0	0.0	0.0				
	917	2.090000997915623	0.0	0.0	0.0	1.0	3.0	1	2.09	0.0	0.0	0.0	0.0	0.0	0.0	0.0	0.0	0.0	0.0	0.0	0.0				
	919	21.910000997766254	12.0	12.0	12.0	1.0	26.0	1	21.91	0.0	0.0	0.0	0.0	0.0	0.0	0.0	0.0	0.0	0.0	0.0	0.0				
	920	1.990000997853739	0.0	0.0	0.0	1.0	2.0	1	1.9900000000000002	0.0	0.0	0.0	0.0	0.0	0.0	0.0	0.0	0.0	0.0	0.0	0.0				
	929	63.73000099784504	28.99999953459303	50.0	28.999999999999996	1.0	77.0	1	63.73	0.0	0.0	0.0	0.0	0.0	0.0	0.0	0.0	0.0	0.0	0.0	0.0				
	959	2.4900009979578717	1.0	1.0	1.0	1.0	3.0	1	2.49	0.0	0.0	0.0	0.0	0.0	0.0	0.0	0.0	0.0	0.0	0.0	0.0				
	968	0.7000009980420121	0.0	0.0	0.0	1.0	1.0	1	0.7	0.0	0.0	0.0	0.0	0.0	0.0	0.0	0.0	0.0	0.0	0.0	0.0				
	993	3.980000998053653	1.0	1.0	1.0	1.0	5.0	1	3.9800000000000004	0.0	0.0	0.0	0.0	0.0	0.0	0.0	0.0	0.0	0.0	0.0	0.0				
	994	1.990000998053655	1.0	1.0	1.0	1.0	2.0	1	1.9900000000000002	0.0	0.0	0.0	0.0	0.0	0.0	0.0	0.0	0.0	0.0	0.0	0.0				
	995	-9.978271744911981e-7	12.791539704490898	38.0	0.0	1.0	60.0	1	100.0	0.0	0.0	0.0	0.0	0.0	0.0	0.0	0.0	0.0	0.0	0.0	0.0				
	996	-9.975424277684978e-7	13.140997520100173	38.0	0.0	1.0	60.0	1	50.0	0.0	0.0	0.0	0.0	0.0	0.0	0.0	0.0	0.0	0.0	0.0	0.0				
	997	-9.978273083056016e-7	6.382208449569745	38.0	0.0	1.0	60.0	1	50.0	0.0	0.0	0.0	0.0	0.0	0.0	0.0	0.0	0.0	0.0	0.0	0.0				
	1004	4.280000997953267	3.0	3.0	3.0	1.0	5.0	1	4.28	0.0	0.0	0.0	0.0	0.0	0.0	0.0	0.0	0.0	0.0	0.0	0.0				
	1024	0.10000099803592977	0.0	0.0	0.0	1.0	0.0	1	0.1	0.0	0.0	0.0	0.0	0.0	0.0	0.0	0.0	0.0	0.0	0.0	0.0				
	1027	24.900000997885723	13.0	13.0	13.0	1.0	30.0	1	24.9	0.0	0.0	0.0	0.0	0.0	0.0	0.0	0.0	0.0	0.0	0.0	0.0				
	1028	2.990000997886932	3.0	3.0	3.0	1.0	4.0	1	2.99	0.0	0.0	0.0	0.0	0.0	0.0	0.0	0.0	0.0	0.0	0.0	0.0				
	1029	24.900000997888327	14.000000000000002	14.000000000000002	14.000000000000002	1.0	30.0	1	24.9	0.0	0.0	0.0	0.0	0.0	0.0	0.0	0.0	0.0	0.0	0.0	0.0				
	1053	59.76000099788067	6.240386115011359	53.0	0.0	1.0	72.0	1	59.760000000000005	0.0	0.0	0.0	0.0	0.0	0.0	0.0	0.0	0.0	0.0	0.0	0.0				
	1054	29.880000997897206	22.609789361516846	31.0	0.0	1.0	36.0	1	29.880000000000003	0.0	0.0	0.0	0.0	0.0	0.0	0.0	0.0	0.0	0.0	0.0	0.0				
	1105	7.970000997949368	10.0	10.0	10.0	1.0	10.0	1	7.969999999999999	0.0	0.0	0.0	0.0	0.0	0.0	0.0	0.0	0.0	0.0	0.0	0.0				
	1106	22.910000997963223	13.0	13.0	13.0	1.0	28.0	1	22.91	0.0	0.0	0.0	0.0	0.0	0.0	0.0	0.0	0.0	0.0	0.0	0.0				
	1107	10.560000997868476	3.0	3.0	3.0	1.0	13.0	1	10.56	0.0	0.0	0.0	0.0	0.0	0.0	0.0	0.0	0.0	0.0	0.0	0.0				
	1138	44.82000099785645	9.922160535327523	41.0	0.0	1.0	54.0	1	44.82	0.0	0.0	0.0	0.0	0.0	0.0	0.0	0.0	0.0	0.0	0.0	0.0				
	1140	-9.854173943576378e-7	19.44385919090625	199.0	-87.0	1.0	252.0	1	229.99999999999997	0.0	0.0	0.0	0.0	0.0	0.0	0.0	0.0	0.0	0.0	0.0	0.0				
	1141	-9.97386119553176e-7	32.546729302726554	190.0	-89.0	1.0	251.0	1	225.0	0.0	0.0	0.0	0.0	0.0	0.0	0.0	0.0	0.0	0.0	0.0	0.0				
	1175	37.84000099799251	20.0	20.0	20.0	1.0	45.0	1	37.84	0.0	0.0	0.0	0.0	0.0	0.0	0.0	0.0	0.0	0.0	0.0	0.0				
	1182	-9.980072979987117e-7	-21.504138637444136	125.0	-50.0	1.0	133.0	1	120.0	0.0	0.0	0.0	0.0	0.0	0.0	0.0	0.0	0.0	0.0	0.0	0.0				
	1183	120.00000117427703	-24.007821583938874	125.0	-50.0	1.0	133.0	1	120.0	0.0	0.0	0.0	0.0	0.0	0.0	0.0	0.0	0.0	0.0	0.0	0.0				
	1184	-9.974060434798833e-7	41.95974707109226	125.0	-50.0	1.0	133.0	1	120.0	0.0	0.0	0.0	0.0	0.0	0.0	0.0	0.0	0.0	0.0	0.0	0.0				
	1191	106.5600010635074	10.488387474895234	129.0	-47.0	1.0	128.0	1	106.56000000000002	0.0	0.0	0.0	0.0	0.0	0.0	0.0	0.0	0.0	0.0	0.0	0.0				
	1192	250.00000248709878	50.72437798394086	125.0	-50.0	1.0	123.0	1	250.0	0.0	0.0	0.0	0.0	0.0	0.0	0.0	0.0	0.0	0.0	0.0	0.0				
	1201	99.59000099787161	-6.65533639632963e-7	90.0	0.0	1.0	120.0	1	99.59	0.0	0.0	0.0	0.0	0.0	0.0	0.0	0.0	0.0	0.0	0.0	0.0				
	1202	99.59000099787161	-6.655199020733674e-7	90.0	0.0	1.0	120.0	1	99.59	0.0	0.0	0.0	0.0	0.0	0.0	0.0	0.0	0.0	0.0	0.0	0.0				
	1203	99.59000099788345	-7.138325616468101e-7	90.0	0.0	1.0	120.0	1	99.59	0.0	0.0	0.0	0.0	0.0	0.0	0.0	0.0	0.0	0.0	0.0	0.0				
	1232	51.79000099793362	-2.6218434448036537e-7	41.0	0.0	1.0	62.0	1	51.790000000000006	0.0	0.0	0.0	0.0	0.0	0.0	0.0	0.0	0.0	0.0	0.0	0.0				
	1233	14.940000997951635	-2.567398520878926e-7	41.0	0.0	1.0	18.0	1	14.940000000000001	0.0	0.0	0.0	0.0	0.0	0.0	0.0	0.0	0.0	0.0	0.0	0.0				
	1244	18.9200009979356	20.0	20.0	20.0	1.0	23.0	1	18.92	0.0	0.0	0.0	0.0	0.0	0.0	0.0	0.0	0.0	0.0	0.0	0.0				
	1247	15.930000997948717	12.0	12.0	12.0	1.0	19.0	1	15.93	0.0	0.0	0.0	0.0	0.0	0.0	0.0	0.0	0.0	0.0	0.0	0.0				
	1250	197.1900019697788	26.900676643266348	151.0	0.0	1.0	237.0	1	197.19	0.0	0.0	0.0	0.0	0.0	0.0	0.0	0.0	0.0	0.0	0.0	0.0				
	1268	0.5000009979312636	0.0	0.0	0.0	1.0	1.0	1	0.5	0.0	0.0	0.0	0.0	0.0	0.0	0.0	0.0	0.0	0.0	0.0	0.0				
	1316	1.000000998009348	0.0	0.0	0.0	1.0	1.0	1	1.0	0.0	0.0	0.0	0.0	0.0	0.0	0.0	0.0	0.0	0.0	0.0	0.0				
	1325	1.3900009978872043	0.0	0.0	0.0	1.0	2.0	1	1.39	0.0	0.0	0.0	0.0	0.0	0.0	0.0	0.0	0.0	0.0	0.0	0.0				
	1349	1.4900009980764204	0.0	0.0	0.0	1.0	2.0	1	1.49	0.0	0.0	0.0	0.0	0.0	0.0	0.0	0.0	0.0	0.0	0.0	0.0				
	1356	1.0000009979479816	2.0	2.0	2.0	1.0	1.0	1	1.0	0.0	0.0	0.0	0.0	0.0	0.0	0.0	0.0	0.0	0.0	0.0	0.0				
	1359	0.8000009979584383	1.0	1.0	1.0	1.0	1.0	1	0.8	0.0	0.0	0.0	0.0	0.0	0.0	0.0	0.0	0.0	0.0	0.0	0.0				
	1393	12.750000997941422	-9.485496890372646e-7	11.0	0.0	1.0	15.0	1	12.75	0.0	0.0	0.0	0.0	0.0	0.0	0.0	0.0	0.0	0.0	0.0	0.0				
	1403	4.280000997886262	1.0	1.0	1.0	1.0	5.0	1	4.28	0.0	0.0	0.0	0.0	0.0	0.0	0.0	0.0	0.0	0.0	0.0	0.0				
	1416	332.5816684968486	20.954678272552208	180.0	10.0	1.0	246.0	1	371.0	0.0	0.0	0.0	0.0	0.0	0.0	0.0	0.0	0.0	0.0	0.0	0.0				
	1417	-9.961580274700112e-7	4.999999435021873	120.0	5.0	1.0	123.0	1	120.0	0.0	0.0	0.0	0.0	0.0	0.0	0.0	0.0	0.0	0.0	0.0	0.0				
	1418	-9.96778796837049e-7	4.999999315485862	90.0	5.0	1.0	123.0	1	20.0	0.0	0.0	0.0	0.0	0.0	0.0	0.0	0.0	0.0	0.0	0.0	0.0				
	1426	-9.965464652756887e-7	26.99999918354081	68.0	27.0	1.0	106.0	1	495.0	0.0	0.0	0.0	0.0	0.0	0.0	0.0	0.0	0.0	0.0	0.0	0.0				
	1429	0.2000009979283322	0.0	0.0	0.0	1.0	0.0	1	0.2	0.0	0.0	0.0	0.0	0.0	0.0	0.0	0.0	0.0	0.0	0.0	0.0				
	1469	0.6000009979545394	0.0	0.0	0.0	1.0	1.0	1	0.6	0.0	0.0	0.0	0.0	0.0	0.0	0.0	0.0	0.0	0.0	0.0	0.0				
	1475	2.090000997922958	2.0	2.0	2.0	1.0	3.0	1	2.09	0.0	0.0	0.0	0.0	0.0	0.0	0.0	0.0	0.0	0.0	0.0	0.0				
	1504	31.17000099794539	2.0	2.0	2.0	1.0	37.0	1	31.17	0.0	0.0	0.0	0.0	0.0	0.0	0.0	0.0	0.0	0.0	0.0	0.0				
	1505	48.80000099793424	4.0	4.0	4.0	1.0	59.0	1	48.8	0.0	0.0	0.0	0.0	0.0	0.0	0.0	0.0	0.0	0.0	0.0	0.0				
	1514	2.2900009975391953	1.0	1.0	1.0	1.0	3.0	1	2.29	0.0	0.0	0.0	0.0	0.0	0.0	0.0	0.0	0.0	0.0	0.0	0.0				
	1534	0.30000099791918844	0.0	0.0	0.0	1.0	0.0	1	0.3	0.0	0.0	0.0	0.0	0.0	0.0	0.0	0.0	0.0	0.0	0.0	0.0				
	1536	-9.977217863079562e-7	28.64449047739628	190.0	-89.0	1.0	251.0	1	225.0	0.0	0.0	0.0	0.0	0.0	0.0	0.0	0.0	0.0	0.0	0.0	0.0				
	1537	225.00000221884977	30.272013072257913	202.99999999999997	-95.0	1.0	255.0	1	225.0	0.0	0.0	0.0	0.0	0.0	0.0	0.0	0.0	0.0	0.0	0.0	0.0				
	1538	-9.873911067234957e-7	17.378635379429717	190.0	-89.0	1.0	255.0	1	215.0	0.0	0.0	0.0	0.0	0.0	0.0	0.0	0.0	0.0	0.0	0.0	0.0				
	1542	8.960000997933605	3.0	3.0	3.0	1.0	11.0	1	8.96	0.0	0.0	0.0	0.0	0.0	0.0	0.0	0.0	0.0	0.0	0.0	0.0				
	1543	1.2000009979159567	0.0	0.0	0.0	1.0	1.0	1	1.2	0.0	0.0	0.0	0.0	0.0	0.0	0.0	0.0	0.0	0.0	0.0	0.0				
	1550	1.7900009979160656	1.0	1.0	1.0	1.0	2.0	1	1.79	0.0	0.0	0.0	0.0	0.0	0.0	0.0	0.0	0.0	0.0	0.0	0.0				
	1566	54.7700009979245	19.99999968953251	47.0	20.0	1.0	66.0	1	54.77000000000001	0.0	0.0	0.0	0.0	0.0	0.0	0.0	0.0	0.0	0.0	0.0	0.0				
	1587	63.7400009979301	27.0	27.0	27.0	1.0	77.0	1	63.739999999999995	0.0	0.0	0.0	0.0	0.0	0.0	0.0	0.0	0.0	0.0	0.0	0.0				
	1600	17.430000997866156	3.0	3.0	3.0	1.0	21.0	1	17.43	0.0	0.0	0.0	0.0	0.0	0.0	0.0	0.0	0.0	0.0	0.0	0.0				
	1602	-9.969661430214143e-7	1.7855618947884133	90.0	0.0	1.0	144.0	1	120.0	0.0	0.0	0.0	0.0	0.0	0.0	0.0	0.0	0.0	0.0	0.0	0.0				
	1603	-9.949388311656863e-7	8.09501599560614	90.0	0.0	1.0	144.0	1	120.0	0.0	0.0	0.0	0.0	0.0	0.0	0.0	0.0	0.0	0.0	0.0	0.0				
	1609	0.3000009980861823	0.0	0.0	0.0	1.0	0.0	1	0.3	0.0	0.0	0.0	0.0	0.0	0.0	0.0	0.0	0.0	0.0	0.0	0.0				
	1617	2.000000998029066	0.0	0.0	0.0	1.0	2.0	1	2.0	0.0	0.0	0.0	0.0	0.0	0.0	0.0	0.0	0.0	0.0	0.0	0.0				
	1620	1.6000009980524956	0.0	0.0	0.0	1.0	2.0	1	1.6	0.0	0.0	0.0	0.0	0.0	0.0	0.0	0.0	0.0	0.0	0.0	0.0				
...
];

%% branch data
%    f_bus    t_bus    r    x    b    rateA    rateB    rateC    ratio    angle    status    angmin    angmax
mpc.branch = [
	16	1	0.00155	0.01169	0.0182	160.0	160.0	160.0	0	0	1	-60.0001403060998	60.0001403060998	55.93595799669284	-8.31387363117512	-55.88790791636663	6.80733833135618				
	355	1	0.00157	0.06612	0.0	160.0	160.0	160.0	1.0099	0.0	1	-60.0001403060998	60.0001403060998	-55.83944569878583	8.848307647560834	55.88790791636663	-6.80733833135618				
	17	2	0.00155	0.01169	0.0182	160.0	160.0	160.0	0	0	1	-60.0001403060998	60.0001403060998	44.429232376338	-1.7542664587627197	-44.39864968748173	0.16449997706771022				
	354	2	0.00157	0.06612	0.0	160.0	160.0	160.0	1.022	0.0	1	-60.0001403060998	60.0001403060998	-44.36769008037914	1.4683529844710557	44.39864968748173	-0.16449997706771022				
	10	3	0.01068	0.07895	0.1226	274.0	274.0	274.0	0	0	1	-60.0001403060998	60.0001403060998	37.22888274971336	-10.44668316659331	-37.09011191503922	-1.7374233054260457				
	219	3	0.00165	0.06736	0.0	160.0	160.0	160.0	1.027	0.0	1	-60.0001403060998	60.0001403060998	-11.881052841222978	-6.893841666012776	11.883970121918535	7.012937440348324				
	220	3	0.00165	0.06736	0.0	160.0	160.0	160.0	0.9955	0.0	1	-60.0001403060998	60.0001403060998	-25.19598117298665	5.690313754455372	25.20614179312069	-5.275514134922277				
	7	4	0.01674	0.09711	0.14423	377.0	377.0	377.0	0	0	1	-60.0001403060998	60.0001403060998	-22.889105774075354	20.07749403640144	23.093437620885503	-33.83068701768322				
	11	4	0.00293	0.01599	0.02478	335.0	335.0	335.0	0	0	1	-60.0001403060998	60.0001403060998	22.829342874008812	-1.4900771389072078	-22.814289168982267	-0.9401770365339321				
	14	4	0.00442	0.03223	0.04985	463.99999999999994	463.99999999999994	463.99999999999994	0	0	1	-60.0001403060998	60.0001403060998	-32.845185943239066	-29.14587105425852	32.92487009847889	24.726377616890684				
	16	4	0.00888	0.06665	0.08896	377.0	377.0	377.0	0	0	1	-60.0001403060998	60.0001403060998	114.44013177611956	-5.282665782470615	-113.30754052166047	4.708999407121564				
	22	4	0.00783	0.043	0.04962	350.0	350.0	350.0	0	0	1	-60.0001403060998	60.0001403060998	-54.67461670697919	15.86760167147396	54.93009996375102	-19.50882829068035				
	245	4	0.00165	0.06901	0.0	160.0	160.0	160.0	1.0594	0.0	1	-60.0001403060998	60.0001403060998	-11.271657488784951	-21.772741811759786	11.281751867516626	22.194931554955318				
	246	4	0.00165	0.06901	0.0	160.0	160.0	160.0	1.0448	0.0	1	-60.0001403060998	60.0001403060998	-13.888413363187201	-2.513171542542015	13.891670140010698	2.6493837659299238				
	5	6	0.00064	0.0305	0.0	400.0	400.0	400.0	1.0435	-0.6	1	-60.0001403060998	60.0001403060998	-89.81413223182545	-42.14652208934071	89.87834408919998	45.20661841734545				
	7	5	0.00525	0.03988	0.06195	381.0	381.0	381.0	0	0	1	-60.0001403060998	60.0001403060998	-12.758813062641556	-14.11027308119068	12.772710582687113	7.62907462787301				
	10	5	0.01459	0.11219	0.16553	381.0	381.0	381.0	0	0	1	-60.0001403060998	60.0001403060998	-65.79853891776615	6.402428574067621	66.41627547111436	-19.41591323516932				
	309	5	0.00165	0.0686	0.0	160.0	160.0	160.0	1.0646	0.0	1	-60.0001403060998	60.0001403060998	-5.478885060823445	-35.007903842345684	5.4992065584621646	35.85278550174948				
	309	5	0.00165	0.0686	0.0	160.0	160.0	160.0	1.0523	0.0	1	-60.0001403060998	60.0001403060998	-5.120484427981688	-17.853771472222462	5.125939619561809	18.080575194887547				
	6	8	0.00112	0.01329	0.34125	1316.0	1316.0	1316.0	0	0	1	-60.0001403060998	60.0001403060998	40.00595776805846	-1.8225253160241408	-39.9855596686624	-32.277419666818325				
	6	9	0.00299	0.03675	0.9184	1427.0	1427.0	1427.0	0	0	1	-60.0001403060998	60.0001403060998	63.45170334173399	-80.09191404452928	-63.2985847453138	-11.674985908449164				
	15	6	0.00298	0.03417	0.93504	1427.0	1427.0	1427.0	0	0	1	-60.0001403060998	60.0001403060998	-87.10357963499781	-68.75351747630235	87.34801147624049	-21.764075103753164				
	31	6	0.0015	0.01506	0.4032	1385.0	1385.0	1385.0	0	0	1	-60.0001403060998	60.0001403060998	373.4229280622008	-51.02567150296527	-371.33298553455336	31.35741208249675				
	310	6	0.0015	0.06188	0.0	250.0	250.0	250.0	1.0613	0.0	1	-60.0001403060998	60.0001403060998	-90.51585855833738	-21.62324034790924	90.64896885932045	27.11448396446438				
	12	7	0.01211	0.08742	0.14017	381.0	381.0	381.0	0	0	1	-60.0001403060998	60.0001403060998	-29.41834218134906	-5.062506863368321	29.51834980073398	-9.022820685410025				
	13	7	0.00205	0.01326	0.02243	335.0	335.0	335.0	0	0	1	-60.0001403060998	60.0001403060998	32.7829490990497	25.441003601233582	-32.74865586146131	-27.602186318450833				
	19	7	0.0057	0.0407	0.06021	323.0	323.0	323.0	0	0	1	-60.0001403060998	60.0001403060998	-44.5674652656871	13.983442538143676	44.68939246069736	-19.51018414958692				
	21	7	0.00093	0.00651	0.01113	160.0	160.0	160.0	0	0	1	-60.0001403060998	60.0001403060998	-21.87401005778918	16.902652969814767	21.880891992996613	-18.03332638622244				
	29	7	0.01269	0.07498	0.1302	362.0	362.0	362.0	0	0	1	-60.0001403060998	60.0001403060998	50.777490942845915	8.490217074999586	-50.4498693933622	-20.559090774935083				
	321	7	0.00041	0.03368	0.0	250.0	250.0	250.0	1.0323	0.0	1	-60.0001403060998	60.0001403060998	-3.4077140311779495	-22.6308323400874	3.4097731426152516	22.79998081132639				
	322	7	0.00165	0.06775	0.0	160.0	160.0	160.0	1.0569	0.0	1	-60.0001403060998	60.0001403060998	-19.274362105933804	-62.93528329038871	19.348036694497225	65.96040654806816				
	8	18	0.00336	0.03977	1.02163	1316.0	1316.0	1316.0	0	0	1	-60.0001403060998	60.0001403060998	39.9855596686624	32.277419666818325	-39.69836459638812	-127.9749704175301				
	332	9	0.00087	0.05244	-0.02144	330.0	330.0	330.0	1.0781	0.0	1	-60.0001403060998	60.0001403060998	-63.263816682032584	-7.381685573903771	63.2985847453138	11.674985908449164				
	171	10	0.01409	0.10413	0.15972	463.99999999999994	463.99999999999994	463.99999999999994	0	0	1	-60.0001403060998	60.0001403060998	6.863427124581572	-16.410510545429943	-6.848876414641617	-0.5828699372736207				
	346	10	0.00124	0.06839	0.0	160.0	160.0	160.0	1.0054	0.0	1	-60.0001403060998	60.0001403060998	-18.69558412138742	3.184667844947394	18.699706937990733	-2.9572812098663923				
	347	10	0.00124	0.06839	0.0	160.0	160.0	160.0	1.024	0.0	1	-60.0001403060998	60.0001403060998	-11.213734119681156	-3.446682072867681	11.215324648641126	3.5344048757487387				
	16	11	0.0057	0.03952	0.07553	463.99999999999994	463.99999999999994	463.99999999999994	0	0	1	-60.0001403060998	60.0001403060998	183.38346304259497	-8.086475875497696	-181.51574874279677	13.326708532979891				
	17	11	0.0057	0.03952	0.07553	463.99999999999994	463.99999999999994	463.99999999999994	0	0	1	-60.0001403060998	60.0001403060998	-28.22866688691962	-16.850278403854983	28.283781425479837	9.621562783407214				
	111	11	0.01068	0.06196	0.09496	394.0	394.0	394.0	0	0	1	-60.0001403060998	60.0001403060998	-79.19435890563675	36.69481975939476	80.01179557362686	-41.736694951228976				
	352	11	0.00165	0.06901	0.0	160.0	160.0	160.0	1.0412	0.0	1	-60.0001403060998	60.0001403060998	-16.231098520817397	-2.1328198728950927	16.235472781035114	2.315769992668195				
	353	11	0.00165	0.06901	0.0	160.0	160.0	160.0	1.0559	0.0	1	-60.0001403060998	60.0001403060998	-34.13113494371138	-16.94969974353589	34.15535608864616	17.962730781080882				
	140	12	0.01465	0.10589	0.17085	463.99999999999994	463.99999999999994	463.99999999999994	0	0	1	-60.0001403060998	60.0001403060998	-16.109188290419038	4.280003948856266	16.169184092080645	-22.062700808974306				
	359	12	0.00155	0.06612	0.0	160.0	160.0	160.0	1.0395	0.0	1	-60.0001403060998	60.0001403060998	-15.280140870315236	-10.663321407034548	15.285316272892482	10.884094064072018				
	360	12	0.00157	0.06612	0.0	160.0	160.0	160.0	1.059	0.0	1	-60.0001403060998	60.0001403060998	2.0401470116265665	-16.07312551430528	-2.0361581836240696	16.24111360827061				
	29	13	0.01345	0.08114	0.14113	339.0	339.0	339.0	0	0	1	-60.0001403060998	60.0001403060998	41.571140069696284	2.373630173806285	-41.345965538812685	-16.254651762185063				
	365	13	0.00165	0.06901	0.0	160.0	160.0	160.0	1.0312	0.0	1	-60.0001403060998	60.0001403060998	-3.4210554401745648	-8.097908787581257	3.4222637582461655	8.148445775532998				
	366	13	0.00165	0.06901	0.0	160.0	160.0	160.0	0.9872	0.0	1	-60.0001403060998	60.0001403060998	-5.135695311320612	17.54631829169672	5.140752681516818	-17.334797614581518				
	17	14	0.00384	0.02853	0.04588	463.99999999999994	463.99999999999994	463.99999999999994	0	0	1	-60.0001403060998	60.0001403060998	10.926551258916188	9.999888021180285	-10.916169564365495	-14.496487857357994				
	367	14	0.00157	0.06798	0.0	160.0	160.0	160.0	1.0664	0.0	1	-60.0001403060998	60.0001403060998	-33.40404571219474	-13.324993635756622	33.424911190721886	14.228455565868368				
	368	14	0.00165	0.06901	0.0	160.0	160.0	160.0	1.0777	0.0	1	-60.0001403060998	60.0001403060998	-10.320292506476918	-28.738366111746583	10.336444316882684	29.41390334574815				
	18	15	0.00358	0.04262	1.0944	1662.0	1662.0	1662.0	0	0	1	-60.0001403060998	60.0001403060998	18.662468246932825	-111.86478716987534	-18.50850926820834	8.453027439408805				
	15	165	0.00207	0.02474	0.664	831.0	831.0	831.0	0	0	1	-60.0001403060998	60.0001403060998	64.39158099542462	6.093482689251775	-64.27296436616545	-69.51297610794876				
	374	15	0.0015	0.06188	0.0	250.0	250.0	250.0	1.1502	0.0	1	-60.0001403060998	60.0001403060998	-41.150045575979185	-51.300201286356064	41.220507907781524	54.20700734764176				
	16	18	0.00036	0.02519	0.0	500.0	500.0	500.0	1.0605	0.0	1	-60.0001403060998	60.0001403060998	283.54745952145544	-38.50659010163139	-283.22461126938407	61.096999739624756				
	16	73	0.00909	0.0624	0.11142	463.99999999999994	463.99999999999994	463.99999999999994	0	0	1	-60.0001403060998	60.0001403060998	57.99699485720574	-24.8103950941557	-57.66697929142216	15.55249070399718				
	17	18	0.00036	0.02519	0.0	500.0	500.0	500.0	1.0607	0.0	1	-60.0001403060998	60.0001403060998	-16.322431110104933	-90.96573936956739	16.356997635109185	93.3844359386164				
	17	74	0.00868	0.06405	0.09699	463.99999999999994	463.99999999999994	463.99999999999994	0	0	1	-60.0001403060998	60.0001403060998	-45.454686631268466	-27.9296043549084	45.680066716482315	19.698985984414065				
	20	18	0.00063	0.00749	0.39226	1427.0	1427.0	1427.0	0	0	1	-60.0001403060998	60.0001403060998	-258.05368297564553	26.542812330905196	258.5139468734459	-57.85026537413701				
	75	18	0.00219	0.02369	0.59584	1434.0	1434.0	1434.0	0	0	1	-60.0001403060998	60.0001403060998	-4.797330962875522	-23.71960625562919	4.798284545578289	-32.099594446776244				
	18	76	0.00137	0.01625	0.41184	1662.0	1662.0	1662.0	0	0	1	-60.0001403060998	60.0001403060998	7.379473307497421	-25.270739763022267	-7.3781503837168	-13.301694149806536				
	18	101	0.00231	0.02769	0.70144	1662.0	1662.0	1662.0	0	0	1	-60.0001403060998	60.0001403060998	-51.638195739853785	-96.9210796675475	51.80535965261755	31.915375220475656				
	124	19	0.01696	0.12366	0.19699	463.99999999999994	463.99999999999994	463.99999999999994	0	0	1	-60.0001403060998	60.0001403060998	-19.109813687230854	-3.9426111671029975	19.17434948807953	-16.69387574857007				
	425	19	0.00165	0.06818	0.0	160.0	160.0	160.0	1.0241	0.0	1	-60.0001403060998	60.0001403060998	-25.383028824724995	-2.2936280907102926	25.393115777607562	2.7104332104263937				
	67	20	0.00331	0.03425	0.85888	831.0	831.0	831.0	0	0	1	-60.0001403060998	60.0001403060998	-195.41313957727453	-28.068051092258965	196.7780277887806	-38.05521242815724				
	447	20	0.00137	0.06119	-0.01504	250.0	250.0	250.0	1.0796	0.0	1	-60.0001403060998	60.0001403060998	-22.784467169113256	0.4070895196270673	22.7920509230589	1.3432383737825178				
	448	20	0.00137	0.06119	-0.01504	250.0	250.0	250.0	1.0923	0.0	1	-60.0001403060998	60.0001403060998	-38.46069422616355	-7.742427765908626	38.48360426380608	10.16916172346953				
	502	21	0.00165	0.07107	0.0	160.0	160.0	160.0	0.9922	0.0	1	-60.0001403060998	60.0001403060998	-21.862115998520046	17.414962540880303	21.87401005778918	-16.902652969814767				
	112	22	0.00465	0.02618	0.02962	362.0	362.0	362.0	0	0	1	-60.0001403060998	60.0001403060998	-81.93625454752888	64.41336987332873	82.42810105533293	-64.70391452279561				
	526	22	0.00165	0.06901	0.0	160.0	160.0	160.0	1.0685	0.0	1	-60.0001403060998	60.0001403060998	3.5403041591398914	-40.108672762313226	-3.5125505411913887	41.269446807540746				
	527	22	0.00165	0.06901	0.0	160.0	160.0	160.0	1.0424	0.0	1	-60.0001403060998	60.0001403060998	24.251366746606184	-7.13051625528474	-24.240933807162364	7.566866043780918				
	37	23	0.01163	0.07031	0.1058	394.0	394.0	394.0	0	0	1	-60.0001403060998	60.0001403060998	39.68752342422051	-15.203372888968131	-39.5112868375384	4.630140459336637				
	46	23	0.00837	0.04868	0.07348	457.0	457.0	457.0	0	0	1	-60.0001403060998	60.0001403060998	-2.544407437990438	-17.585963936779365	2.5590949800236467	9.62097320150728				
	53	23	0.01122	0.06558	0.09835	274.0	274.0	274.0	0	0	1	-60.0001403060998	60.0001403060998	-3.4461222437647723	-2.7927319952313083	3.448036478018826	-8.051780304339925				
	540	23	0.0014	0.0668	0.0	160.0	160.0	160.0	1.0182	0.0	1	-60.0001403060998	60.0001403060998	-33.48941223241623	6.902792088592704	33.50415537949593	-6.199333356503992				
	54	24	0.00769	0.05727	0.08789	160.0	160.0	160.0	0	0	1	-60.0001403060998	60.0001403060998	12.855198582715193	-18.725134481132834	-12.830580697800348	9.058268137264799				
	545	24	0.00151	0.06715	0.0	160.0	160.0	160.0	1.0161	0.0	1	-60.0001403060998	60.0001403060998	-12.82727776672796	9.205150138264456	12.830580697800348	-9.058268137264799				
	41	25	0.00556	0.04145	0.0636	274.0	274.0	274.0	0	0	1	-60.0001403060998	60.0001403060998	25.03446760456075	-6.8074564152321955	-25.002632603046273	-0.03539274797792268				
	53	25	0.00452	0.03368	0.05169	463.99999999999994	463.99999999999994	463.99999999999994	0	0	1	-60.0001403060998	60.0001403060998	-23.907033011023447	-11.607617535100935	23.933541915930956	6.071759341667959				
	54	25	0.00019	0.0014	0.00213	463.99999999999994	463.99999999999994	463.99999999999994	0	0	1	-60.0001403060998	60.0001403060998	24.64805954774679	14.690291104819444	-24.64664902581991	-14.917073810366844				
	564	25	0.00157	0.07808	0.0	160.0	160.0	160.0	1.0276	0.0	1	-60.0001403060998	60.0001403060998	-25.705301242971956	-8.361576175446341	25.715739712935225	8.880707216676806				
	38	26	0.00698	0.05196	0.07967	160.0	160.0	160.0	0	0	1	-60.0001403060998	60.0001403060998	42.92252792854656	-10.508704399437935	-42.80297636614738	2.650405913173858				
	568	26	0.00149	0.06616	0.0	160.0	160.0	160.0	1.013	0.0	1	-60.0001403060998	60.0001403060998	-42.77803039591322	3.7580739606181015	42.80297636614738	-2.650405913173858				
	28	27	0.0	0.0001	0.0	876.0	876.0	876.0	0	0	1	-60.0001403060998	60.0001403060998	37.75172081026207	5.1448198710373285	-37.75172081026207	-5.143463947769333				
	33	27	0.0024	0.01494	0.02253	160.0	160.0	160.0	0	0	1	-60.0001403060998	60.0001403060998	-45.203752920182424	-6.3973261894728255	45.250329162789015	4.2794513415646085				
	48	27	0.01213	0.06215	0.09371	362.0	362.0	362.0	0	0	1	-60.0001403060998	60.0001403060998	-13.042817949612736	8.849951124292545	13.083550435528768	-18.739500214188347				
	27	74	0.01116	0.07231	0.10367	304.0	304.0	304.0	0	0	1	-60.0001403060998	60.0001403060998	-20.582158788055708	19.60351282039307	20.69226806602578	-29.826945525693727				
	47	28	0.00248	0.01798	0.02759	463.99999999999994	463.99999999999994	463.99999999999994	0	0	1	-60.0001403060998	60.0001403060998	-34.48499314189218	20.676416950906955	34.52369340898918	-23.358208886844093				
	28	88	0.01488	0.08161	0.1148	362.0	362.0	362.0	0	0	1	-60.0001403060998	60.0001403060998	-72.27541421925126	18.213389015806765	73.08391008922229	-25.986443193651475				
	30	29	0.0	0.0001	0.0	876.0	876.0	876.0	0	0	1	-60.0001403060998	60.0001403060998	-64.2917559473219	-26.50636524023957	64.2917559473219	26.510789890380554				
	29	32	0.00034	0.02097	0.0	500.0	500.0	500.0	1.0619	0.0	1	-60.0001403060998	60.0001403060998	-303.6411570540365	-75.31526825398521	303.9844518958401	96.48848246757186				
	45	29	0.00545	0.04021	0.06699	463.99999999999994	463.99999999999994	463.99999999999994	0	0	1	-60.0001403060998	60.0001403060998	-19.628709270747468	-6.293874842593669	19.64834746510534	-0.868911565993491				
	48	29	0.00574	0.04283	0.06573	463.99999999999994	463.99999999999994	463.99999999999994	0	0	1	-60.0001403060998	60.0001403060998	-35.270062440211255	-8.399947593338997	35.33713353157188	1.7435953268125435				
	613	29	0.00157	0.06775	0.0	160.0	160.0	160.0	1.0016	0.0	1	-60.0001403060998	60.0001403060998	-80.23015753135844	-6.003942636068864	80.32428809937562	10.065946447001105				
	46	30	0.00545	0.04021	0.06699	463.99999999999994	463.99999999999994	463.99999999999994	0	0	1	-60.0001403060998	60.0001403060998	-19.401857879436054	-6.201458004916443	19.42102789144211	-0.9647644122276551				
	49	30	0.00707	0.04541	0.06931	362.0	362.0	362.0	0	0	1	-60.0001403060998	60.0001403060998	-33.10734133021883	-7.552674891741294	33.17972705760565	0.47112874546116934				
	32	31	0.0	0.0001	0.0	1593.0	1593.0	1593.0	0	0	1	-60.0001403060998	60.0001403060998	-473.38729648783226	-96.57565328946175	473.38729648783226	96.80736028525241				
	39	31	0.00176	0.02144	0.57344	1385.0	1385.0	1385.0	0	0	1	-60.0001403060998	60.0001403060998	-143.36074162712117	14.860664104507407	143.74878541316406	-68.28168970608432				
	36	32	0.00167	0.0189	0.54176	498.00000000000006	498.00000000000006	498.00000000000006	0	0	1	-60.0001403060998	60.0001403060998	-168.91469770371415	-48.73464660949071	169.4028445919922	0.08717082188989789				
...